# generated using pymatgen
data_Ba(PdS2)2
_symmetry_space_group_name_H-M   P2_1/m
_cell_length_a   6.76872747
_cell_length_b   6.82618445
_cell_length_c   7.29550679
_cell_angle_alpha   90.00000000
_cell_angle_beta   110.20556559
_cell_angle_gamma   90.00000000
_symmetry_Int_Tables_number   11
_chemical_formula_structural   Ba(PdS2)2
_chemical_formula_sum   'Ba2 Pd4 S8'
_cell_volume   316.34140400
_cell_formula_units_Z   2
loop_
 _symmetry_equiv_pos_site_id
 _symmetry_equiv_pos_as_xyz
  1  'x, y, z'
  2  '-x, -y, -z'
  3  '-x, y+1/2, -z'
  4  'x, -y+1/2, z'
loop_
 _atom_type_symbol
 _atom_type_oxidation_number
  Ba2+  2.0
  Pd2+  2.0
  S2-  -2.0
  S-  -1.0
loop_
 _atom_site_type_symbol
 _atom_site_label
 _atom_site_symmetry_multiplicity
 _atom_site_fract_x
 _atom_site_fract_y
 _atom_site_fract_z
 _atom_site_occupancy
  Ba2+  Ba0  2  0.28319498  0.25000000  0.49351422  1
  Pd2+  Pd1  2  0.00000000  0.00000000  0.00000000  1
  Pd2+  Pd2  2  0.48320435  0.75000000  0.98935886  1
  S2-  S3  4  0.36718468  0.00446764  0.14259960  1
  S-  S4  2  0.02517248  0.25000000  0.78839900  1
  S-  S5  2  0.20484731  0.75000000  0.48809019  1
