# generated using pymatgen
data_Cr5S8
_symmetry_space_group_name_H-M   C2/m
_cell_length_a   11.15587700
_cell_length_b   6.86830135
_cell_length_c   8.07578845
_cell_angle_alpha   90.00000000
_cell_angle_beta   132.32566433
_cell_angle_gamma   90.00000000
_symmetry_Int_Tables_number   12
_chemical_formula_structural   Cr5S8
_chemical_formula_sum   'Cr10 S16'
_cell_volume   457.48416178
_cell_formula_units_Z   2
loop_
 _symmetry_equiv_pos_site_id
 _symmetry_equiv_pos_as_xyz
  1  'x, y, z'
  2  '-x, -y, -z'
  3  '-x, y, -z'
  4  'x, -y, z'
  5  'x+1/2, y+1/2, z'
  6  '-x+1/2, -y+1/2, -z'
  7  '-x+1/2, y+1/2, -z'
  8  'x+1/2, -y+1/2, z'
loop_
 _atom_type_symbol
 _atom_type_oxidation_number
  Cr3+  3.0
  Cr4+  4.0
  S2-  -2.0
loop_
 _atom_site_type_symbol
 _atom_site_label
 _atom_site_symmetry_multiplicity
 _atom_site_fract_x
 _atom_site_fract_y
 _atom_site_fract_z
 _atom_site_occupancy
  Cr3+  Cr0  4  0.00000000  0.27227979  0.50000000  1
  Cr3+  Cr1  4  0.22740872  0.50000000  0.99232764  1
  Cr4+  Cr2  2  0.00000000  0.00000000  0.00000000  1
  S2-  S3  8  0.21441734  0.23666404  0.16944360  1
  S2-  S4  4  0.01668360  0.00000000  0.31898834  1
  S2-  S5  4  0.04358004  0.50000000  0.33152903  1
